NOTHING!!!

new line...

new conflicts new

merge with no ff mode
