NOTHING!!!

new line...

new conflicts new
