NOTHING!!!

new line...

new conflicts

merge with no ff mode
